   10
scf done:  -208.819705
 N     0.186101    -1.096710    -0.000000
 C     1.151103    -0.134592     0.000000
 C     0.540469     1.077912     0.000000
 C    -0.865790     0.839272    -0.000000
 C    -1.042274    -0.506771     0.000000
 H    -1.938071    -1.092358     0.000000
 H    -1.643776     1.575594    -0.000000
 H     1.031979     2.029673     0.000000
 H     2.189929    -0.391907    -0.000000
 H     0.351910    -2.073903    -0.000000
